
**** 05/29/25 00:03:38 ******* PSpice Lite (March 2016) ******* ID# 10813 ****

 ** Profile: "SCHEMATIC1-DCSweep_eval"  [ C:\GitHub\UniRepo\CEA\Circuite\test_ex2-PSpiceFiles\SCHEMATIC1\DCSweep_eval.sim ] 


 ****     CIRCUIT DESCRIPTION


******************************************************************************




** Creating circuit file "DCSweep_eval.cir" 
** WARNING: THIS AUTOMATICALLY GENERATED FILE MAY BE OVERWRITTEN BY SUBSEQUENT SIMULATIONS

*Libraries: 
* Profile Libraries :
* Local Libraries :
* From [PSPICE NETLIST] section of C:\Users\mihai\AppData\Roaming\SPB_Data\cdssetup\OrCAD_PSpice\17.2.0\PSpice.ini file:
.lib "nomd.lib" 

*Analysis directives: 
.DC LIN V_V2 0 6 0.01 
+ V_V1 LIST 0.65 .066 .067 .068 .069 .07 
----------------------$
ERROR(ORPSIM-16068): Must be monotonically increasing or decreasing
.OPTIONS ADVCONV
.PROBE64 V(alias(*)) I(alias(*)) W(alias(*)) D(alias(*)) NOISE(alias(*)) 
.INC "..\SCHEMATIC1.net" 



**** INCLUDING SCHEMATIC1.net ****
* source TEST_EX2
Q_Q1         1 2 0 Q40236
V_V2         1 0 6Vdc
V_V1         2 0 0.7Vdc

**** RESUMING DCSweep_eval.cir ****
.END
