
**** 05/15/25 15:19:35 ******* PSpice Lite (March 2016) ******* ID# 10813 ****

 ** Profile: "SCHEMATIC1-caracIesire_DCsweep"  [ C:\Users\vboxuser\Documents\GitHub\UniRepo\CEA\Lab6MOSFET\Lab6MOSFET-PSpiceFiles\SCH


 ****     CIRCUIT DESCRIPTION


******************************************************************************




** Creating circuit file "caracIesire_DCsweep.cir" 
** WARNING: THIS AUTOMATICALLY GENERATED FILE MAY BE OVERWRITTEN BY SUBSEQUENT SIMULATIONS

*Libraries: 
* Profile Libraries :
* Local Libraries :
* From [PSPICE NETLIST] section of C:\SPB_Data\cdssetup\OrCAD_PSpice\17.2.0\PSpice.ini file:
.lib "nomd.lib" 

*Analysis directives: 
.DC LIN V_V2 0 4 .001 
.OPTIONS ADVCONV
.PROBE64 V(alias(*)) I(alias(*)) W(alias(*)) D(alias(*)) NOISE(alias(*)) 
.INC "..\SCHEMATIC1.net" 



**** INCLUDING SCHEMATIC1.net ****
* source LAB6MOSFET
X_M1         2 1 0 M2N7000/ZTX 
V_V1         2 0 10Vdc
V_V2         1 0 4Vdc

**** RESUMING caracIesire_DCsweep.cir ****
.END

**** 05/15/25 15:19:35 ******* PSpice Lite (March 2016) ******* ID# 10813 ****

 ** Profile: "SCHEMATIC1-caracIesire_DCsweep"  [ C:\Users\vboxuser\Documents\GitHub\UniRepo\CEA\Lab6MOSFET\Lab6MOSFET-PSpiceFiles\SCH


 ****     Diode MODEL PARAMETERS


******************************************************************************




               X_M1.DIODE1     
          IS  125.400000E-15 
           N    1.0207       
          RS     .222        


**** 05/15/25 15:19:35 ******* PSpice Lite (March 2016) ******* ID# 10813 ****

 ** Profile: "SCHEMATIC1-caracIesire_DCsweep"  [ C:\Users\vboxuser\Documents\GitHub\UniRepo\CEA\Lab6MOSFET\Lab6MOSFET-PSpiceFiles\SCH


 ****     MOSFET MODEL PARAMETERS


******************************************************************************




               X_M1.MOD1       
               NMOS            
       LEVEL    1            
           L  100.000000E-06 
           W  100.000000E-06 
         VTO    2.474        
          KP     .296        
       GAMMA    0            
         PHI     .6          
      LAMBDA  267.000000E-06 
          RS    1.68         
          IS    1.000000E-15 
          JS    0            
          PB    1            
        PBSW    1            
         CBD   53.500000E-12 
          CJ    0            
        CJSW    0            
        CGSO    0            
        CGDO    0            
        CGBO    0            
         TOX    0            
          XJ    0            
       UCRIT   10.000000E+03 
      DIOMOD    1            
         VFB    0            
        LETA    0            
        WETA    0            
          U0    0            
        TEMP    0            
         VDD    5            
       XPART    0            



          JOB CONCLUDED

**** 05/15/25 15:19:35 ******* PSpice Lite (March 2016) ******* ID# 10813 ****

 ** Profile: "SCHEMATIC1-caracIesire_DCsweep"  [ C:\Users\vboxuser\Documents\GitHub\UniRepo\CEA\Lab6MOSFET\Lab6MOSFET-PSpiceFiles\SCH


 ****     JOB STATISTICS SUMMARY


******************************************************************************



  Total job time (using Solver 1)   =         .14
