
**** 03/20/25 14:51:36 ******* PSpice Lite (March 2016) ******* ID# 10813 ****

 ** Profile: "SCHEMATIC1-Caracterstica_Statica_Diode"  [ C:\Users\vboxuser\Documents\GitHub\UniRepo\CEA\Lab1CEA-PSpiceFiles\SCHEMATIC


 ****     CIRCUIT DESCRIPTION


******************************************************************************




** Creating circuit file "Caracterstica_Statica_Diode.cir" 
** WARNING: THIS AUTOMATICALLY GENERATED FILE MAY BE OVERWRITTEN BY SUBSEQUENT SIMULATIONS

*Libraries: 
* Profile Libraries :
* Local Libraries :
* From [PSPICE NETLIST] section of C:\SPB_Data\cdssetup\OrCAD_PSpice\17.2.0\PSpice.ini file:
.lib "nomd.lib" 

*Analysis directives: 
.DC LIN I_I1 0 1A 0.01 
.OPTIONS ADVCONV
.PROBE64 V(alias(*)) I(alias(*)) W(alias(*)) D(alias(*)) NOISE(alias(*)) 
.INC "..\SCHEMATIC1.net" 



**** INCLUDING SCHEMATIC1.net ****
* source LAB1CEA
I_I1         0 1 DC 1Adc  
D_D1         1 0 D1N4007 

**** RESUMING Caracterstica_Statica_Diode.cir ****
.END

**** 03/20/25 14:51:36 ******* PSpice Lite (March 2016) ******* ID# 10813 ****

 ** Profile: "SCHEMATIC1-Caracterstica_Statica_Diode"  [ C:\Users\vboxuser\Documents\GitHub\UniRepo\CEA\Lab1CEA-PSpiceFiles\SCHEMATIC


 ****     Diode MODEL PARAMETERS


******************************************************************************




               D1N4007         D1N4001         
          IS   14.110000E-09   14.110000E-09 
           N    1.984           1.984        
         IKF   94.81           94.81         
          BV    1.500000E+03   75            
         IBV   10.000000E-06   10.000000E-06 
          RS     .03389          .03389      
          TT    5.700000E-06    5.700000E-06 
         CJO   25.890000E-12   25.890000E-12 
          VJ     .3245           .3245       
           M     .44             .44         



          JOB CONCLUDED

**** 03/20/25 14:51:36 ******* PSpice Lite (March 2016) ******* ID# 10813 ****

 ** Profile: "SCHEMATIC1-Caracterstica_Statica_Diode"  [ C:\Users\vboxuser\Documents\GitHub\UniRepo\CEA\Lab1CEA-PSpiceFiles\SCHEMATIC


 ****     JOB STATISTICS SUMMARY


******************************************************************************



  Total job time (using Solver 1)   =         .06
