
**** 05/29/25 00:57:09 ******* PSpice Lite (March 2016) ******* ID# 10813 ****

 ** Profile: "SCHEMATIC1-ACSWeep_evall"  [ C:\GitHub\UniRepo\CEA\Circuite\test_ex3-PSpiceFiles\SCHEMATIC1\ACSWeep_evall.sim ] 


 ****     CIRCUIT DESCRIPTION


******************************************************************************




** Creating circuit file "ACSWeep_evall.cir" 
** WARNING: THIS AUTOMATICALLY GENERATED FILE MAY BE OVERWRITTEN BY SUBSEQUENT SIMULATIONS

*Libraries: 
* Profile Libraries :
* Local Libraries :
* From [PSPICE NETLIST] section of C:\Users\mihai\AppData\Roaming\SPB_Data\cdssetup\OrCAD_PSpice\17.2.0\PSpice.ini file:
.lib "nomd.lib" 

*Analysis directives: 
.AC DEC 0.01 1Hz 1000MHz
--------$
ERROR(ORPSIM-16151): Invalid integer
.OPTIONS ADVCONV
.PROBE64 V(alias(*)) I(alias(*)) W(alias(*)) D(alias(*)) NOISE(alias(*)) 
.INC "..\SCHEMATIC1.net" 



**** INCLUDING SCHEMATIC1.net ****
* source TEST_EX3
Q_Q1         N00329 N00333 N00357 Q40236
R_R1         0 N00333  24k TC=0,0 
R_R2         N00333 N00305  72k TC=0,0 
R_R3         N00329 N00305  2.6k TC=0,0 
R_R4         0 N00357  1.4k TC=0,0 
R_R5         0 N00381  8.6k TC=0,0 
C_C1         N00408 N00333  10u  TC=0,0 
C_C2         N00329 N00381  10u  TC=0,0 
C_C3         0 N00357  100u  TC=0,0 
V_V2         N00408 0  AC 1
+SIN 0 111m 10k 0 0 0
V_V1         N00305 0 12Vdc

**** RESUMING ACSWeep_evall.cir ****
.END
