
**** 05/28/25 19:29:06 ******* PSpice Lite (March 2016) ******* ID# 10813 ****

 ** Profile: "SCHEMATIC1-DCSweep_eval"  [ C:\GitHub\UniRepo\CEA\Circuite\Test_Ex_1-PSpiceFiles\SCHEMATIC1\DCSweep_eval.sim ] 


 ****     CIRCUIT DESCRIPTION


******************************************************************************




** Creating circuit file "DCSweep_eval.cir" 
** WARNING: THIS AUTOMATICALLY GENERATED FILE MAY BE OVERWRITTEN BY SUBSEQUENT SIMULATIONS

*Libraries: 
* Profile Libraries :
* Local Libraries :
* From [PSPICE NETLIST] section of C:\Users\mihai\AppData\Roaming\SPB_Data\cdssetup\OrCAD_PSpice\17.2.0\PSpice.ini file:
.lib "nomd.lib" 

*Analysis directives: 
.DC DEC V_V1 0V 6V 1V 
-------------$
ERROR(ORPSIM-16104): Invalid start value
.OPTIONS ADVCONV
.PROBE64 V(alias(*)) I(alias(*)) W(alias(*)) D(alias(*)) NOISE(alias(*)) 
.INC "..\SCHEMATIC1.net" 



**** INCLUDING SCHEMATIC1.net ****
* source TEST_EX_1
Q_Q1         1 2 0 Q40236
R_R1         1 N00225  1k TC=0,0 
R_R2         N00170 2  10k TC=0,0 
V_V1         N00225 0 6Vdc
V_V2         N00170 0 1Vdc

**** RESUMING DCSweep_eval.cir ****
.END
